<?xml version="1.0" encoding="UTF-8"?>

<nodes>
 <node id="C" x="0.00" y="0.00" type="priority"/>
 <node id="E" x="5000.00" y="0.00" type="unregulated"/>
</nodes>
